16

P     1.668827   0.039952   0.288435
O     2.265736   1.356258  -0.065654
O     2.196262  -1.265829  -0.528473
C    -0.130809   0.005725   0.127196
C    -0.812972   1.211131  -0.062513
C    -2.200262   1.210695  -0.177956
C    -2.905549   0.011535  -0.099744
C    -2.226959  -1.192229   0.090906
C    -0.840660  -1.198575   0.203010
H     1.967036  -0.449105   1.574125
H     2.060261  -1.196723  -1.482551
H    -0.248398   2.133207  -0.125084
H    -2.729670   2.143936  -0.328430
H    -3.985667   0.013210  -0.188030
H    -2.778027  -2.123334   0.148263
H    -0.310668  -2.133603   0.342815
