17

C    -3.061016  -0.342091  -0.000007
C    -1.586626  -0.022199  -0.000004
C    -1.131065   1.294698   0.000012
C     0.237308   1.579363   0.000012
C     1.158886   0.545466   0.000016
O     2.525782   0.706135  -0.000027
C     0.716612  -0.786863   0.000003
O     1.619583  -1.809003   0.000071
C    -0.643316  -1.058116  -0.000030
H    -3.339797  -0.928545   0.880683
H    -3.661648   0.569197   0.000173
H    -3.339878  -0.928238  -0.880876
H    -1.842942   2.111843   0.000029
H     0.583780   2.608000   0.000014
H     2.747690   1.642587   0.000006
H     2.503044  -1.417688  -0.000330
H    -0.957866  -2.095758  -0.000068
