15

O     2.395973  -1.748051   0.000000
C     1.227301  -1.033488   0.000000
C     0.032436  -1.748672  -0.000000
C    -1.180560  -1.059814  -0.000000
C    -1.204197   0.326451  -0.000000
O    -2.345863   1.101691  -0.000000
C     0.000000   1.043279   0.000000
O    -0.009978   2.404930   0.000000
C     1.211932   0.363341   0.000000
H     3.140496  -1.137585   0.000000
H     0.060434  -2.830140  -0.000000
H    -2.114552  -1.612182  -0.000000
H    -3.125871   0.538485  -0.000000
H    -0.934229   2.687929   0.000000
H     2.131197   0.938349   0.000000
