14

O     1.460258  -3.297240  -0.000000
C     1.050515  -1.987629  -0.000000
C     1.898355  -0.890827   0.000000
C     1.377456   0.404995   0.000000
C    -0.000000   0.568141   0.000000
Br   -0.737444   2.341715   0.000000
C    -0.869338  -0.519313  -0.000000
C    -0.341979  -1.804641  -0.000000
O    -1.177289  -2.876502  -0.000000
H     2.421638  -3.348524  -0.000000
H     2.972586  -1.040071   0.000000
H     2.038317   1.260122   0.000000
H    -1.942736  -0.390569  -0.000000
H    -0.633071  -3.675381  -0.000000
