26

C     1.552518   2.529285  -0.000000
C     0.071371   2.120619   0.000000
C    -0.593092   2.715763   1.259341
C    -0.593092   2.715763  -1.259341
C    -0.111821   0.596773   0.000000
C    -1.399816   0.049082   0.000000
C    -1.599926  -1.329624   0.000000
C    -0.511639  -2.190505   0.000000
O    -0.593092  -3.564339   0.000000
C     0.784167  -1.664223  -0.000000
O     1.867675  -2.494560  -0.000000
C     0.972309  -0.286618  -0.000000
H     2.073715   2.158271  -0.886094
H     2.073715   2.158271   0.886094
H     1.630636   3.619339  -0.000000
H    -1.662245   2.496186   1.291913
H    -0.471829   3.803016   1.274906
H    -0.138064   2.306833   2.165102
H    -0.138064   2.306833  -2.165102
H    -1.662245   2.496186  -1.291913
H    -0.471829   3.803016  -1.274906
H    -2.267619   0.696214   0.000000
H    -2.606175  -1.736543   0.000000
H    -1.515377  -3.839463   0.000000
H     1.539590  -3.403271  -0.000000
H     1.993250   0.068414  -0.000000
