14

O    -2.401791   0.988656   0.000000
C    -1.212900   0.320162   0.000000
C    -1.191675  -1.067578   0.000000
C     0.019668  -1.761487   0.000000
C     1.196779  -1.037391   0.000000
F     2.384391  -1.693254   0.000000
C     1.213226   0.351838  -0.000000
C    -0.000000   1.027665  -0.000000
O    -0.125276   2.392929  -0.000000
H    -2.207851   1.934924  -0.000000
H    -2.134601  -1.599226   0.000000
H     0.049712  -2.842696   0.000000
H     2.158215   0.881744  -0.000000
H     0.740955   2.812608  -0.000000
