23

H     0.840535  -3.134907   0.000000
C     0.946509  -2.057397   0.000000
C     1.291320   0.712322  -0.000000
C     2.227963  -1.516871   0.000000
C    -0.164851  -1.221407   0.000000
C     0.000000   0.165454  -0.000000
C     2.393128  -0.119247   0.000000
H    -1.160682  -1.641026   0.000000
H     1.405359   1.790032  -0.000000
O     3.311468  -2.331218   0.000000
H     4.102290  -1.774576   0.000000
O     3.698196   0.304716  -0.000000
H     3.736734   1.266878  -0.000000
C    -1.142494   1.108323  -0.000000
O    -1.034429   2.316877  -0.000000
O    -2.332993   0.476979  -0.000000
C    -3.506789   1.323139  -0.000000
H    -3.475035   1.965314   0.882725
H    -3.475035   1.965314  -0.882725
C    -4.717108   0.414744  -0.000000
H    -4.724120  -0.222785   0.886565
H    -4.724120  -0.222785  -0.886565
H    -5.629932   1.015352  -0.000000
