14

H     2.156964  -1.914014   0.000000
C     1.207710  -1.393904   0.000000
C    -1.184958  -0.024143  -0.000000
C     1.213413  -0.001575   0.000000
C    -0.000153  -2.088440  -0.000000
C    -1.216388  -1.407276  -0.000000
C    -0.000000   0.696510   0.000000
H     0.005620  -3.170886  -0.000000
H    -2.168038  -1.921505  -0.000000
O     2.390533   0.680390   0.000000
H     2.190593   1.625760   0.000000
O     0.057541   2.063728   0.000000
H    -0.839451   2.418432  -0.000000
F    -2.338668   0.702471  -0.000000
